test/resources/V1_3/loadDetailRef.xml
<?xml version="1.0" encoding="UTF-8"?>
<iidm:network xmlns:iidm="http://www.powsybl.org/schema/iidm/1_3" xmlns:ld="http://www.itesla_project.eu/schema/iidm/ext/load_detail/1_0" id="test" caseDate="2016-06-27T12:27:58.535000+02:00" forecastDistance="0" sourceFormat="test">
    <iidm:substation id="S" country="FR">
        <iidm:voltageLevel id="VL" nominalV="400" topologyKind="BUS_BREAKER">
            <iidm:busBreakerTopology>
                <iidm:bus id="B"/>
            </iidm:busBreakerTopology>
            <iidm:load id="L" loadType="UNDEFINED" p0="100" q0="50" bus="B" connectableBus="B"/>
        </iidm:voltageLevel>
    </iidm:substation>
    <iidm:extension id="L">
        <ld:detail fixedActivePower="40" fixedReactivePower="20" variableActivePower="60" variableReactivePower="30"/>
    </iidm:extension>
</iidm:network>
